Version 4
SHEET 1 2228 868
WIRE -656 -96 -672 -96
WIRE -544 -96 -656 -96
WIRE -400 -96 -464 -96
WIRE -304 -96 -400 -96
WIRE -240 -96 -304 -96
WIRE -32 -96 -160 -96
WIRE 0 -96 -32 -96
WIRE 128 -96 0 -96
WIRE 256 -96 208 -96
WIRE 400 -96 336 -96
WIRE 496 -96 400 -96
WIRE 544 -96 496 -96
WIRE 656 -96 544 -96
WIRE 400 -16 400 -96
WIRE 544 32 544 -96
WIRE -672 48 -672 -96
WIRE -400 48 -400 -96
WIRE -32 64 -32 -96
WIRE 400 96 400 48
WIRE -672 256 -672 128
WIRE -400 256 -400 112
WIRE -400 256 -672 256
WIRE -32 256 -32 144
WIRE -32 256 -400 256
WIRE 400 256 400 176
WIRE 400 256 -32 256
WIRE 544 256 544 112
WIRE 544 256 400 256
WIRE -672 304 -672 256
WIRE 128 400 80 400
WIRE 288 400 208 400
WIRE 416 400 352 400
WIRE 416 480 416 400
WIRE 496 480 416 480
WIRE 656 480 656 -96
WIRE 656 480 576 480
WIRE 416 528 416 480
WIRE 416 528 192 528
WIRE -304 544 -336 544
WIRE 80 544 80 400
WIRE 80 544 -304 544
WIRE 128 544 80 544
WIRE 304 560 192 560
WIRE 352 560 304 560
WIRE 352 624 352 560
WIRE 352 752 352 704
FLAG -672 304 0
FLAG 496 -96 out
FLAG 0 -96 sq
FLAG -304 -96 b
FLAG 304 560 in
FLAG -304 544 d
FLAG 352 752 0
FLAG -656 -96 g
SYMBOL cap 384 -16 R0
SYMATTR InstName C1
SYMATTR Value 33µ
SYMBOL voltage -672 32 R0
WINDOW 123 0 0 Left 0
WINDOW 39 0 0 Left 0
WINDOW 0 51 39 Left 2
WINDOW 3 49 69 Left 2
SYMATTR InstName V1
SYMATTR Value 10
SYMBOL res 528 16 R0
SYMATTR InstName R1
SYMATTR Value 1
SYMBOL res 384 80 R0
SYMATTR InstName R2
SYMATTR Value 0.1
SYMBOL res 352 -112 R90
WINDOW 0 0 56 VBottom 2
WINDOW 3 32 56 VTop 2
SYMATTR InstName R3
SYMATTR Value 0.05
SYMBOL Misc\\Gpoly -144 -96 R90
WINDOW 0 62 56 VBottom 2
WINDOW 3 62 55 VTop 2
SYMATTR InstName Gs
SYMATTR Value value = {v(d)*i(L1)}
SYMBOL Misc\\Epoly -32 48 R0
WINDOW 0 48 44 Left 2
WINDOW 3 41 72 Left 2
SYMATTR InstName Ed
SYMATTR Value value={v(d)*V(b)}
SYMBOL ind 112 -80 R270
WINDOW 0 32 56 VTop 2
WINDOW 3 5 56 VBottom 2
SYMATTR InstName L1
SYMATTR Value 10µ
SYMBOL voltage 352 608 M0
WINDOW 123 0 0 Left 0
WINDOW 39 0 0 Left 0
WINDOW 0 -107 32 Left 2
WINDOW 3 -69 70 Left 2
SYMATTR InstName Vref1
SYMATTR Value 5
SYMBOL res 224 384 R90
WINDOW 0 0 56 VBottom 2
WINDOW 3 32 56 VTop 2
SYMATTR InstName R4
SYMATTR Value 1.81k
SYMBOL cap 352 384 R90
WINDOW 0 0 32 VBottom 2
WINDOW 3 32 32 VTop 2
SYMATTR InstName C2
SYMATTR Value 10n
SYMBOL res 592 464 R90
WINDOW 0 0 56 VBottom 2
WINDOW 3 32 56 VTop 2
SYMATTR InstName R5
SYMATTR Value 1.81k
SYMBOL MyOpamp 160 544 R180
WINDOW 39 57 -98 Center 2
WINDOW 40 52 -66 Center 2
WINDOW 0 16 28 Left 2
WINDOW 38 15 -34 Left 2
SYMATTR SpiceLine2 Ao=1e6 FBW=10e6
SYMATTR InstName U2
SYMBOL ind -560 -80 R270
WINDOW 0 32 56 VTop 2
WINDOW 3 5 56 VBottom 2
SYMATTR InstName L2
SYMATTR Value 100µ
SYMBOL cap -416 48 R0
SYMATTR InstName C3
SYMATTR Value 10µ
TEXT -504 -168 Left 2 !.tran 500u uic
