Version 4
SHEET 1 2132 680
WIRE -592 -720 -624 -720
WIRE -496 -720 -592 -720
WIRE -624 -624 -624 -720
WIRE -624 -416 -624 -544
WIRE -224 -240 -304 -240
WIRE -48 -240 -144 -240
WIRE -624 -160 -784 -160
WIRE -464 -160 -544 -160
WIRE -368 -160 -464 -160
WIRE -304 -160 -304 -240
WIRE -304 -160 -368 -160
WIRE -48 -160 -48 -240
WIRE 96 -160 -48 -160
WIRE 160 -160 96 -160
WIRE 288 -160 160 -160
WIRE 416 -160 368 -160
WIRE 560 -160 496 -160
WIRE 656 -160 560 -160
WIRE 704 -160 656 -160
WIRE 96 -128 96 -160
WIRE 560 -128 560 -160
WIRE -304 -80 -304 -160
WIRE -224 -80 -304 -80
WIRE -48 -80 -48 -160
WIRE -48 -80 -144 -80
WIRE 704 -80 704 -160
WIRE -784 -64 -784 -160
WIRE -464 -48 -464 -160
WIRE 560 -32 560 -64
WIRE 96 -16 96 -48
WIRE -784 160 -784 16
WIRE -464 160 -464 16
WIRE -464 160 -784 160
WIRE 96 160 96 64
WIRE 96 160 -464 160
WIRE 560 160 560 48
WIRE 560 160 96 160
WIRE 704 160 704 0
WIRE 704 160 560 160
WIRE -784 208 -784 160
FLAG -784 208 0
FLAG 656 -160 o
FLAG 160 -160 sq
FLAG -368 -160 b
FLAG -624 -416 0
FLAG -592 -720 d
SYMBOL cap 544 -128 R0
SYMATTR InstName C1
SYMATTR Value {C}
SYMBOL voltage -784 -80 R0
WINDOW 123 51 66 Left 2
WINDOW 39 0 0 Left 0
SYMATTR InstName VB
SYMATTR Value 0
SYMBOL res 688 -96 R0
SYMATTR InstName R1
SYMATTR Value {R}
SYMBOL res 544 -48 R0
SYMATTR InstName R2
SYMATTR Value {rC}
SYMBOL res 512 -176 R90
WINDOW 0 0 56 VBottom 2
WINDOW 3 32 56 VTop 2
SYMATTR InstName R3
SYMATTR Value {rL}
SYMBOL Misc\\Gpoly -128 -240 R90
WINDOW 0 62 56 VBottom 2
WINDOW 3 -40 49 VBottom 2
SYMATTR InstName Gsd
SYMATTR Value value = {ksd*V(d)}
SYMBOL Misc\\Gpoly -128 -80 R90
WINDOW 0 62 56 VBottom 2
WINDOW 3 90 56 VBottom 2
SYMATTR InstName Gsl
SYMATTR Value value = {ksl*i(L1)}
SYMBOL voltage -624 -640 R0
WINDOW 123 51 66 Left 2
WINDOW 39 0 0 Left 0
SYMATTR Value2 AC 1
SYMATTR InstName Vd
SYMATTR Value 0
SYMBOL Misc\\Epoly 96 -144 R0
WINDOW 3 39 60 Left 2
SYMATTR Value value = {kdd*V(d)}
SYMATTR InstName Edd
SYMBOL Misc\\Epoly 96 -32 R0
WINDOW 3 43 60 Left 2
SYMATTR Value value = {kdb*V(b)}
SYMATTR InstName Edb
SYMBOL ind 272 -144 R270
WINDOW 0 32 56 VTop 2
WINDOW 3 5 56 VBottom 2
SYMATTR InstName L1
SYMATTR Value {L}
SYMBOL ind -640 -144 R270
WINDOW 0 32 56 VTop 2
WINDOW 3 5 56 VBottom 2
SYMATTR InstName L2
SYMATTR Value 100µ
SYMBOL cap -480 -48 R0
SYMATTR InstName C2
SYMATTR Value 10µ
TEXT 368 -696 Left 2 !.param ksd=Vo/R\n.param ksl=D\n \n.param kdd=VB\n.param kdb=D
TEXT -32 -704 Left 2 !.param VB=10\n.param D=0.53\n \n.param L=10u\n.param C=33u\n.param R=1\n.param rL=0.05\n.param rC=0.1\n.param Vo=D*VB/(1 + rL/R)
TEXT -464 -584 Left 2 !.ac dec 100 10 200k
TEXT -472 -544 Left 2 !.meas Vo_value param Vo
